<?xml version="1.0" encoding="UTF-8"?>

<!-- generated on 2022-06-26 23:44:33 by Eclipse SUMO netedit Version 1.13.0
<configuration xmlns:xsi="http://www.w3.org/2001/XMLSchema-instance" xsi:noNamespaceSchemaLocation="http://sumo.dlr.de/xsd/netconvertConfiguration.xsd">

    <input>
        <sumo-net-file value="C:\Users\marth\Documents\Tugas%20Akhir\RL%20Sumo\TLCS%20TA\intersection\mapTA2.net.xml"/>
    </input>

    <output>
        <output-file value="C:\Users\marth\Documents\Tugas%20Akhir\RL%20Sumo\TLCS%20TA\intersection\mapTA2.net.xml"/>
    </output>

    <processing>
        <geometry.min-radius.fix.railways value="false"/>
        <geometry.max-grade.fix value="false"/>
        <offset.disable-normalization value="true"/>
        <lefthand value="true"/>
    </processing>

    <junctions>
        <no-turnarounds value="true"/>
        <junctions.corner-detail value="5"/>
        <junctions.limit-turn-speed value="5.5"/>
        <rectangular-lane-cut value="false"/>
    </junctions>

    <pedestrian>
        <walkingareas value="false"/>
    </pedestrian>

    <report>
        <aggregate-warnings value="5"/>
    </report>

</configuration>
-->

<net version="1.9" junctionCornerDetail="5" lefthand="true" limitTurnSpeed="5.50" xmlns:xsi="http://www.w3.org/2001/XMLSchema-instance" xsi:noNamespaceSchemaLocation="http://sumo.dlr.de/xsd/net_file.xsd">

    <location netOffset="0.00,0.00" convBoundary="-200.00,-200.00,200.00,200.00" origBoundary="-10000000000.00,-10000000000.00,10000000000.00,10000000000.00" projParameter="!"/>

    <edge id=":TL_0" function="internal">
        <lane id=":TL_0_0" index="0" speed="6.51" length="9.03" shape="-8.00,-13.60 -8.35,-11.15 -9.40,-9.40 -11.15,-8.35 -13.60,-8.00"/>
    </edge>
    <edge id=":TL_1" function="internal">
        <lane id=":TL_1_0" index="0" speed="13.89" length="27.20" shape="-4.80,-13.60 -4.80,13.60"/>
        <lane id=":TL_1_1" index="1" speed="13.89" length="27.20" shape="-1.60,-13.60 -1.60,13.60"/>
    </edge>
    <edge id=":TL_3" function="internal">
        <lane id=":TL_3_0" index="0" speed="10.36" length="24.51" shape="-1.60,-13.60 -0.65,-6.95 2.20,-2.20 6.95,0.65 13.60,1.60"/>
    </edge>
    <edge id=":TL_4" function="internal">
        <lane id=":TL_4_0" index="0" speed="6.51" length="9.03" shape="13.60,-8.00 11.15,-8.35 9.40,-9.40 8.35,-11.15 8.00,-13.60"/>
    </edge>
    <edge id=":TL_5" function="internal">
        <lane id=":TL_5_0" index="0" speed="13.89" length="27.20" shape="13.60,-4.80 -13.60,-4.80"/>
        <lane id=":TL_5_1" index="1" speed="13.89" length="27.20" shape="13.60,-1.60 -13.60,-1.60"/>
    </edge>
    <edge id=":TL_7" function="internal">
        <lane id=":TL_7_0" index="0" speed="10.36" length="24.51" shape="13.60,-1.60 6.95,-0.65 2.20,2.20 -0.65,6.95 -1.60,13.60"/>
    </edge>
    <edge id=":TL_8" function="internal">
        <lane id=":TL_8_0" index="0" speed="6.51" length="9.03" shape="8.00,13.60 8.35,11.15 9.40,9.40 11.15,8.35 13.60,8.00"/>
    </edge>
    <edge id=":TL_9" function="internal">
        <lane id=":TL_9_0" index="0" speed="13.89" length="27.20" shape="4.80,13.60 4.80,-13.60"/>
    </edge>
    <edge id=":TL_10" function="internal">
        <lane id=":TL_10_0" index="0" speed="11.36" length="29.67" shape="4.80,13.60 3.65,5.55 0.20,-0.20 -5.55,-3.65 -13.60,-4.80"/>
        <lane id=":TL_10_1" index="1" speed="10.36" length="24.51" shape="1.60,13.60 0.65,6.95 -2.20,2.20 -6.95,-0.65 -13.60,-1.60"/>
    </edge>
    <edge id=":TL_12" function="internal">
        <lane id=":TL_12_0" index="0" speed="6.51" length="9.03" shape="-13.60,8.00 -11.15,8.35 -9.40,9.40 -8.35,11.15 -8.00,13.60"/>
    </edge>
    <edge id=":TL_13" function="internal">
        <lane id=":TL_13_0" index="0" speed="13.89" length="27.20" shape="-13.60,4.80 13.60,4.80"/>
        <lane id=":TL_13_1" index="1" speed="13.89" length="27.20" shape="-13.60,1.60 13.60,1.60"/>
    </edge>
    <edge id=":TL_15" function="internal">
        <lane id=":TL_15_0" index="0" speed="10.36" length="24.51" shape="-13.60,1.60 -6.95,0.65 -2.20,-2.20 0.65,-6.95 1.60,-13.60"/>
    </edge>

    <edge id="E2TL" from="J2" to="TL" priority="-1" length="100.00">
        <lane id="E2TL_0" index="0" speed="13.89" length="100.00" shape="200.00,-8.00 13.60,-8.00"/>
        <lane id="E2TL_1" index="1" speed="13.89" length="100.00" shape="200.00,-4.80 13.60,-4.80"/>
        <lane id="E2TL_2" index="2" speed="13.89" length="100.00" shape="200.00,-1.60 13.60,-1.60"/>
    </edge>
    <edge id="N2TL" from="J3" to="TL" priority="-1" length="100.00">
        <lane id="N2TL_0" index="0" speed="13.89" length="100.00" shape="8.00,200.00 8.00,13.60"/>
        <lane id="N2TL_1" index="1" speed="13.89" length="100.00" shape="4.80,200.00 4.80,13.60"/>
        <lane id="N2TL_2" index="2" speed="13.89" length="100.00" shape="1.60,200.00 1.60,13.60"/>
    </edge>
    <edge id="S2TL" from="J4" to="TL" priority="-1" length="100.00">
        <lane id="S2TL_0" index="0" speed="13.89" length="100.00" shape="-8.00,-200.00 -8.00,-13.60"/>
        <lane id="S2TL_1" index="1" speed="13.89" length="100.00" shape="-4.80,-200.00 -4.80,-13.60"/>
        <lane id="S2TL_2" index="2" speed="13.89" length="100.00" shape="-1.60,-200.00 -1.60,-13.60"/>
    </edge>
    <edge id="TL2E" from="TL" to="J2" priority="-1" length="100.00">
        <lane id="TL2E_0" index="0" speed="13.89" length="100.00" shape="13.60,8.00 200.00,8.00"/>
        <lane id="TL2E_1" index="1" speed="13.89" length="100.00" shape="13.60,4.80 200.00,4.80"/>
        <lane id="TL2E_2" index="2" speed="13.89" length="100.00" shape="13.60,1.60 200.00,1.60"/>
    </edge>
    <edge id="TL2N" from="TL" to="J3" priority="-1" length="100.00">
        <lane id="TL2N_0" index="0" speed="13.89" length="100.00" shape="-8.00,13.60 -8.00,200.00"/>
        <lane id="TL2N_1" index="1" speed="13.89" length="100.00" shape="-4.80,13.60 -4.80,200.00"/>
        <lane id="TL2N_2" index="2" speed="13.89" length="100.00" shape="-1.60,13.60 -1.60,200.00"/>
    </edge>
    <edge id="TL2S" from="TL" to="J4" priority="-1" length="100.00">
        <lane id="TL2S_0" index="0" speed="13.89" length="100.00" shape="8.00,-13.60 8.00,-200.00"/>
        <lane id="TL2S_1" index="1" speed="13.89" length="100.00" shape="4.80,-13.60 4.80,-200.00"/>
        <lane id="TL2S_2" index="2" speed="13.89" length="100.00" shape="1.60,-13.60 1.60,-200.00"/>
    </edge>
    <edge id="TL2W" from="TL" to="J0" priority="-1" length="100.00">
        <lane id="TL2W_0" index="0" speed="13.89" length="100.00" shape="-13.60,-8.00 -200.00,-8.00"/>
        <lane id="TL2W_1" index="1" speed="13.89" length="100.00" shape="-13.60,-4.80 -200.00,-4.80"/>
        <lane id="TL2W_2" index="2" speed="13.89" length="100.00" shape="-13.60,-1.60 -200.00,-1.60"/>
    </edge>
    <edge id="W2TL" from="J0" to="TL" priority="-1" length="100.00">
        <lane id="W2TL_0" index="0" speed="13.89" length="100.00" shape="-200.00,8.00 -13.60,8.00"/>
        <lane id="W2TL_1" index="1" speed="13.89" length="100.00" shape="-200.00,4.80 -13.60,4.80"/>
        <lane id="W2TL_2" index="2" speed="13.89" length="100.00" shape="-200.00,1.60 -13.60,1.60"/>
    </edge>

    <tlLogic id="TL" type="static" programID="0" offset="0">
        <phase duration="46" state="rrrrgGGGgrrrgrrr"/>
        <phase duration="2"  state="rrrrgyyygrrrgrrr"/>
        <phase duration="68" state="rrrrgrrrgGGGgrrr"/>
        <phase duration="2"  state="rrrrgrrrgyyygrrr"/>
        <phase duration="42" state="GrrrgrrrgrrrgGGG"/>
        <phase duration="2"  state="Grrrgrrrgrrrgyyy"/>
        <phase duration="46" state="GGGGgrrrgrrrgrrr"/>
        <phase duration="2"  state="yyyygrrrgrrrgrrr"/>
        <phase duration="2"  state="rrrrgrrrgrrrgrrr"/>
    </tlLogic>

    <junction id="J0" type="dead_end" x="-200.00" y="0.00" incLanes="TL2W_0 TL2W_1 TL2W_2" intLanes="" shape="-200.00,-0.00 -200.00,-9.60 -200.00,-0.00"/>
    <junction id="J2" type="dead_end" x="200.00" y="0.00" incLanes="TL2E_0 TL2E_1 TL2E_2" intLanes="" shape="200.00,-0.00 200.00,9.60 200.00,-0.00"/>
    <junction id="J3" type="dead_end" x="0.00" y="200.00" incLanes="TL2N_0 TL2N_1 TL2N_2" intLanes="" shape="0.00,200.00 -9.60,200.00 0.00,200.00"/>
    <junction id="J4" type="dead_end" x="0.00" y="-200.00" incLanes="TL2S_0 TL2S_1 TL2S_2" intLanes="" shape="0.00,-200.00 9.60,-200.00 0.00,-200.00"/>
    <junction id="TL" type="traffic_light" x="0.00" y="0.00" incLanes="S2TL_0 S2TL_1 S2TL_2 E2TL_0 E2TL_1 E2TL_2 N2TL_0 N2TL_1 N2TL_2 W2TL_0 W2TL_1 W2TL_2" intLanes=":TL_0_0 :TL_1_0 :TL_1_1 :TL_3_0 :TL_4_0 :TL_5_0 :TL_5_1 :TL_7_0 :TL_8_0 :TL_9_0 :TL_10_0 :TL_10_1 :TL_12_0 :TL_13_0 :TL_13_1 :TL_15_0" shape="-9.60,-13.60 9.60,-13.60 10.04,-11.38 10.60,-10.60 11.38,-10.04 12.38,-9.71 13.60,-9.60 13.60,9.60 11.38,10.04 10.60,10.60 10.04,11.38 9.71,12.38 9.60,13.60 -9.60,13.60 -10.04,11.38 -10.60,10.60 -11.38,10.04 -12.38,9.71 -13.60,9.60 -13.60,-9.60 -11.38,-10.04 -10.60,-10.60 -10.04,-11.38 -9.71,-12.38">
        <request index="0"  response="0000000000000000" foes="0000000000000000" cont="0"/>
        <request index="1"  response="0000000000000000" foes="1110110011100000" cont="0"/>
        <request index="2"  response="0000000000000000" foes="1110110011100000" cont="0"/>
        <request index="3"  response="0000001000000000" foes="1110001011100000" cont="0"/>
        <request index="4"  response="0000000000000000" foes="0000000000000000" cont="0"/>
        <request index="5"  response="0000111000001110" foes="1000111000001110" cont="0"/>
        <request index="6"  response="0000111000001110" foes="1000111000001110" cont="0"/>
        <request index="7"  response="0110111000001110" foes="0110111000001110" cont="0"/>
        <request index="8"  response="0000000000000000" foes="0000000000000000" cont="0"/>
        <request index="9"  response="0000000000000000" foes="0110000011101000" cont="0"/>
        <request index="10" response="0000000000000110" foes="1110000011100110" cont="0"/>
        <request index="11" response="0000000000000110" foes="1110000011100110" cont="0"/>
        <request index="12" response="0000000000000000" foes="0000000000000000" cont="0"/>
        <request index="13" response="0000111000001110" foes="0000111010001110" cont="0"/>
        <request index="14" response="0000111000001110" foes="0000111010001110" cont="0"/>
        <request index="15" response="0000110001101110" foes="0000110001101110" cont="0"/>
    </junction>

    <connection from="E2TL" to="TL2S" fromLane="0" toLane="0" via=":TL_4_0" tl="TL" linkIndex="4" dir="l" state="O"/>
    <connection from="E2TL" to="TL2W" fromLane="1" toLane="1" via=":TL_5_0" tl="TL" linkIndex="5" dir="s" state="o"/>
    <connection from="E2TL" to="TL2W" fromLane="2" toLane="2" via=":TL_5_1" tl="TL" linkIndex="6" dir="s" state="o"/>
    <connection from="E2TL" to="TL2N" fromLane="2" toLane="2" via=":TL_7_0" tl="TL" linkIndex="7" dir="r" state="o"/>
    <connection from="N2TL" to="TL2E" fromLane="0" toLane="0" via=":TL_8_0" tl="TL" linkIndex="8" dir="l" state="O"/>
    <connection from="N2TL" to="TL2S" fromLane="1" toLane="1" via=":TL_9_0" tl="TL" linkIndex="9" dir="s" state="O"/>
    <connection from="N2TL" to="TL2W" fromLane="1" toLane="1" via=":TL_10_0" tl="TL" linkIndex="10" dir="r" state="o"/>
    <connection from="N2TL" to="TL2W" fromLane="2" toLane="2" via=":TL_10_1" tl="TL" linkIndex="11" dir="r" state="o"/>
    <connection from="S2TL" to="TL2W" fromLane="0" toLane="0" via=":TL_0_0" tl="TL" linkIndex="0" dir="l" state="O"/>
    <connection from="S2TL" to="TL2N" fromLane="1" toLane="1" via=":TL_1_0" tl="TL" linkIndex="1" dir="s" state="O"/>
    <connection from="S2TL" to="TL2N" fromLane="2" toLane="2" via=":TL_1_1" tl="TL" linkIndex="2" dir="s" state="O"/>
    <connection from="S2TL" to="TL2E" fromLane="2" toLane="2" via=":TL_3_0" tl="TL" linkIndex="3" dir="r" state="o"/>
    <connection from="W2TL" to="TL2N" fromLane="0" toLane="0" via=":TL_12_0" tl="TL" linkIndex="12" dir="l" state="O"/>
    <connection from="W2TL" to="TL2E" fromLane="1" toLane="1" via=":TL_13_0" tl="TL" linkIndex="13" dir="s" state="o"/>
    <connection from="W2TL" to="TL2E" fromLane="2" toLane="2" via=":TL_13_1" tl="TL" linkIndex="14" dir="s" state="o"/>
    <connection from="W2TL" to="TL2S" fromLane="2" toLane="2" via=":TL_15_0" tl="TL" linkIndex="15" dir="r" state="o"/>

    <connection from=":TL_0" to="TL2W" fromLane="0" toLane="0" dir="l" state="M"/>
    <connection from=":TL_1" to="TL2N" fromLane="0" toLane="1" dir="s" state="M"/>
    <connection from=":TL_1" to="TL2N" fromLane="1" toLane="2" dir="s" state="M"/>
    <connection from=":TL_3" to="TL2E" fromLane="0" toLane="2" dir="r" state="M"/>
    <connection from=":TL_4" to="TL2S" fromLane="0" toLane="0" dir="l" state="M"/>
    <connection from=":TL_5" to="TL2W" fromLane="0" toLane="1" dir="s" state="M"/>
    <connection from=":TL_5" to="TL2W" fromLane="1" toLane="2" dir="s" state="M"/>
    <connection from=":TL_7" to="TL2N" fromLane="0" toLane="2" dir="r" state="M"/>
    <connection from=":TL_8" to="TL2E" fromLane="0" toLane="0" dir="l" state="M"/>
    <connection from=":TL_9" to="TL2S" fromLane="0" toLane="1" dir="s" state="M"/>
    <connection from=":TL_10" to="TL2W" fromLane="0" toLane="1" dir="r" state="M"/>
    <connection from=":TL_10" to="TL2W" fromLane="1" toLane="2" dir="r" state="M"/>
    <connection from=":TL_12" to="TL2N" fromLane="0" toLane="0" dir="l" state="M"/>
    <connection from=":TL_13" to="TL2E" fromLane="0" toLane="1" dir="s" state="M"/>
    <connection from=":TL_13" to="TL2E" fromLane="1" toLane="2" dir="s" state="M"/>
    <connection from=":TL_15" to="TL2S" fromLane="0" toLane="2" dir="r" state="M"/>

</net>
