<?xml version="1.0" encoding="UTF-8"?>

<!-- generated on 2022-05-17 20:35:18 by Eclipse SUMO netedit Version 1.13.0
-->

<routes xmlns:xsi="http://www.w3.org/2001/XMLSchema-instance" xsi:noNamespaceSchemaLocation="http://sumo.dlr.de/xsd/routes_file.xsd">
    <!-- VTypes -->
    <vType id="DEFAULT_VEHTYPE" emissionClass="HBEFA3/Bus" guiShape="bus" color="red"/>
    <vType id="bus" vClass="bus" emissionClass="HBEFA3/PC_G_EU4" guiShape="bus" width="1.80" height="1.50" color="blue"/>
    <vType id="car" emissionClass="HBEFA3/PC_G_EU4" guiShape="passenger" width="1.80" height="1.50" color="red"/>
    <vType id="motorcycle" vClass="motorcycle" emissionClass="HBEFA3/PC_G_EU4" guiShape="motorcycle" width="1.80" height="1.50" color="green"/>
    <vType id="truck" vClass="truck" emissionClass="HBEFA3/PC_G_EU4" guiShape="truck" width="1.80" height="1.50" color="yellow"/>
    <!-- Routes -->
    <route id="route_0" edges="W2TL TL2E" color="yellow"/>
    <route id="route_1" edges="W2TL TL2S" color="yellow"/>
    <route id="route_10" edges="N2TL TL2W" color="yellow"/>
    <route id="route_11" edges="N2TL TL2E" color="yellow"/>
    <route id="route_2" edges="W2TL TL2N" color="yellow"/>
    <route id="route_3" edges="S2TL TL2N" color="yellow"/>
    <route id="route_4" edges="S2TL TL2W" color="yellow"/>
    <route id="route_5" edges="S2TL TL2E" color="yellow"/>
    <route id="route_6" edges="E2TL TL2W" color="yellow"/>
    <route id="route_7" edges="E2TL TL2S" color="yellow"/>
    <route id="route_8" edges="E2TL TL2N" color="yellow"/>
    <route id="route_9" edges="N2TL TL2S" color="yellow"/>
    <!-- Vehicles, persons and containers (sorted by depart) -->
    <vehicle id="E_14" type="motorcycle" depart="2.84" departLane="random" departSpeed="10.00" route="route_6"/>
    <vehicle id="S_1" type="motorcycle" depart="4.11" departLane="random" departSpeed="10.00" route="route_5"/>
    <vehicle id="E_54" type="motorcycle" depart="4.29" departLane="random" departSpeed="10.00" route="route_6"/>
    <vehicle id="W_32" type="motorcycle" depart="4.30" departLane="random" departSpeed="10.00" route="route_0"/>
    <vehicle id="W_39" type="motorcycle" depart="4.54" departLane="random" departSpeed="10.00" route="route_0"/>
    <vehicle id="W_44" type="motorcycle" depart="5.26" departLane="random" departSpeed="10.00" route="route_0"/>
    <vehicle id="E_3" type="car" depart="5.60" departLane="random" departSpeed="10.00" route="route_8"/>
    <vehicle id="E_1" type="truck" depart="6.40" departLane="random" departSpeed="10.00" route="route_6"/>
    <vehicle id="W_61" type="car" depart="6.73" departLane="random" departSpeed="10.00" route="route_0"/>
    <vehicle id="S_49" type="motorcycle" depart="7.09" departLane="random" departSpeed="10.00" route="route_3"/>
    <vehicle id="W_67" type="car" depart="7.32" departLane="random" departSpeed="10.00" route="route_0"/>
    <vehicle id="S_55" type="motorcycle" depart="7.49" departLane="random" departSpeed="10.00" route="route_3"/>
    <vehicle id="E_100" type="car" depart="8.07" departLane="random" departSpeed="10.00" route="route_7"/>
    <vehicle id="E_177" type="motorcycle" depart="8.50" departLane="random" departSpeed="10.00" route="route_8"/>
    <vehicle id="S_62" type="motorcycle" depart="8.74" departLane="random" departSpeed="10.00" route="route_5"/>
    <vehicle id="S_3" type="car" depart="9.53" departLane="random" departSpeed="10.00" route="route_4"/>
    <vehicle id="E_166" type="truck" depart="9.66" departLane="random" departSpeed="10.00" route="route_6"/>
    <vehicle id="E_236" type="motorcycle" depart="11.25" departLane="random" departSpeed="10.00" route="route_6"/>
    <vehicle id="E_249" type="car" depart="12.05" departLane="random" departSpeed="10.00" route="route_6"/>
    <vehicle id="S_88" type="motorcycle" depart="12.38" departLane="random" departSpeed="10.00" route="route_3"/>
    <vehicle id="E_188" type="car" depart="12.56" departLane="random" departSpeed="10.00" route="route_8"/>
    <vehicle id="E_315" type="car" depart="13.88" departLane="random" departSpeed="10.00" route="route_8"/>
    <vehicle id="E_333" type="car" depart="14.03" departLane="random" departSpeed="10.00" route="route_8"/>
    <vehicle id="E_235" type="car" depart="14.54" departLane="random" departSpeed="10.00" route="route_7"/>
    <vehicle id="W_157" type="motorcycle" depart="14.67" departLane="random" departSpeed="10.00" route="route_0"/>
    <vehicle id="E_397" type="truck" depart="16.57" departLane="random" departSpeed="10.00" route="route_8"/>
    <vehicle id="E_341" type="car" depart="17.36" departLane="random" departSpeed="10.00" route="route_6"/>
    <vehicle id="W_194" type="motorcycle" depart="18.04" departLane="random" departSpeed="10.00" route="route_0"/>
    <vehicle id="E_431" type="car" depart="18.16" departLane="random" departSpeed="10.00" route="route_6"/>
    <vehicle id="W_203" type="motorcycle" depart="18.51" departLane="random" departSpeed="10.00" route="route_1"/>
    <vehicle id="S_133" type="motorcycle" depart="19.18" departLane="random" departSpeed="10.00" route="route_3"/>
    <vehicle id="W_187" type="car" depart="19.78" departLane="random" departSpeed="10.00" route="route_0"/>
    <vehicle id="E_473" type="truck" depart="20.33" departLane="random" departSpeed="10.00" route="route_6"/>
    <vehicle id="E_438" type="car" depart="22.50" departLane="random" departSpeed="10.00" route="route_6"/>
    <vehicle id="E_521" type="truck" depart="22.87" departLane="random" departSpeed="10.00" route="route_8"/>
    <vehicle id="W_275" type="car" depart="24.74" departLane="random" departSpeed="10.00" route="route_2"/>
    <vehicle id="W_278" type="car" depart="24.89" departLane="random" departSpeed="10.00" route="route_2"/>
    <vehicle id="S_182" type="motorcycle" depart="25.42" departLane="random" departSpeed="10.00" route="route_5"/>
    <vehicle id="W_287" type="car" depart="25.43" departLane="random" departSpeed="10.00" route="route_2"/>
    <vehicle id="S_189" type="motorcycle" depart="26.37" departLane="random" departSpeed="10.00" route="route_3"/>
    <vehicle id="W_310" type="car" depart="26.66" departLane="random" departSpeed="10.00" route="route_2"/>
    <vehicle id="E_556" type="car" depart="26.90" departLane="random" departSpeed="10.00" route="route_6"/>
    <vehicle id="S_199" type="motorcycle" depart="26.94" departLane="random" departSpeed="10.00" route="route_3"/>
    <vehicle id="W_316" type="car" depart="26.97" departLane="random" departSpeed="10.00" route="route_2"/>
    <vehicle id="S_202" type="motorcycle" depart="27.25" departLane="random" departSpeed="10.00" route="route_3"/>
    <vehicle id="E_613" type="car" depart="27.91" departLane="random" departSpeed="10.00" route="route_6"/>
    <vehicle id="S_208" type="motorcycle" depart="28.69" departLane="random" departSpeed="10.00" route="route_4"/>
    <vehicle id="E_583" type="car" depart="29.93" departLane="random" departSpeed="10.00" route="route_6"/>
    <vehicle id="E_651" type="car" depart="30.30" departLane="random" departSpeed="10.00" route="route_7"/>
    <vehicle id="E_655" type="car" depart="30.51" departLane="random" departSpeed="10.00" route="route_6"/>
    <vehicle id="E_593" type="bus" depart="31.60" departLane="random" departSpeed="10.00" route="route_8"/>
    <vehicle id="E_644" type="truck" depart="34.27" departLane="random" departSpeed="10.00" route="route_6"/>
    <vehicle id="E_718" type="car" depart="35.73" departLane="random" departSpeed="10.00" route="route_8"/>
    <vehicle id="E_767" type="car" depart="36.09" departLane="random" departSpeed="10.00" route="route_6"/>
    <vehicle id="E_771" type="car" depart="36.30" departLane="random" departSpeed="10.00" route="route_6"/>
    <vehicle id="E_793" type="car" depart="37.24" departLane="random" departSpeed="10.00" route="route_8"/>
    <vehicle id="S_320" type="motorcycle" depart="37.56" departLane="random" departSpeed="10.00" route="route_5"/>
    <vehicle id="S_340" type="motorcycle" depart="37.80" departLane="random" departSpeed="10.00" route="route_5"/>
    <vehicle id="E_784" type="car" depart="39.42" departLane="random" departSpeed="10.00" route="route_8"/>
    <vehicle id="E_862" type="car" depart="40.07" departLane="random" departSpeed="10.00" route="route_7"/>
    <vehicle id="E_869" type="car" depart="41.02" departLane="random" departSpeed="10.00" route="route_6"/>
    <vehicle id="S_362" type="motorcycle" depart="41.30" departLane="random" departSpeed="10.00" route="route_5"/>
    <vehicle id="E_892" type="car" depart="42.11" departLane="random" departSpeed="10.00" route="route_8"/>
    <vehicle id="W_372" type="car" depart="42.15" departLane="random" departSpeed="10.00" route="route_2"/>
    <vehicle id="E_919" type="car" depart="42.83" departLane="random" departSpeed="10.00" route="route_6"/>
    <vehicle id="S_383" type="motorcycle" depart="43.05" departLane="random" departSpeed="10.00" route="route_3"/>
    <vehicle id="W_504" type="car" depart="43.07" departLane="random" departSpeed="10.00" route="route_0"/>
    <vehicle id="E_905" type="car" depart="44.00" departLane="random" departSpeed="10.00" route="route_8"/>
    <vehicle id="E_960" type="car" depart="44.43" departLane="random" departSpeed="10.00" route="route_8"/>
    <vehicle id="E_966" type="car" depart="46.10" departLane="random" departSpeed="10.00" route="route_7"/>
    <vehicle id="E_1006" type="car" depart="46.17" departLane="random" departSpeed="10.00" route="route_8"/>
    <vehicle id="E_1015" type="car" depart="46.46" departLane="random" departSpeed="10.00" route="route_8"/>
    <vehicle id="E_1018" type="car" depart="46.61" departLane="random" departSpeed="10.00" route="route_6"/>
    <vehicle id="E_1029" type="motorcycle" depart="47.05" departLane="random" departSpeed="10.00" route="route_6"/>
    <vehicle id="S_421" type="motorcycle" depart="47.73" departLane="random" departSpeed="10.00" route="route_4"/>
    <vehicle id="E_955" type="car" depart="48.57" departLane="random" departSpeed="10.00" route="route_8"/>
    <vehicle id="E_1063" type="motorcycle" depart="48.72" departLane="random" departSpeed="10.00" route="route_8"/>
    <vehicle id="E_1001" type="car" depart="49.45" departLane="random" departSpeed="10.00" route="route_6"/>
    <vehicle id="E_1083" type="motorcycle" depart="49.52" departLane="random" departSpeed="10.00" route="route_6"/>
    <vehicle id="E_1050" type="car" depart="52.50" departLane="random" departSpeed="10.00" route="route_6"/>
    <vehicle id="N_273" type="car" depart="52.62" departLane="random" departSpeed="10.00" route="route_10"/>
    <vehicle id="E_1066" type="car" depart="53.15" departLane="random" departSpeed="10.00" route="route_8"/>
    <vehicle id="N_276" type="car" depart="53.28" departLane="random" departSpeed="10.00" route="route_10"/>
    <vehicle id="E_1146" type="car" depart="53.58" departLane="random" departSpeed="10.00" route="route_7"/>
    <vehicle id="E_1201" type="car" depart="53.73" departLane="random" departSpeed="10.00" route="route_7"/>
    <vehicle id="E_1210" type="car" depart="53.94" departLane="random" departSpeed="10.00" route="route_6"/>
    <vehicle id="E_1212" type="car" depart="53.94" departLane="random" departSpeed="10.00" route="route_6"/>
    <vehicle id="E_1215" type="car" depart="54.09" departLane="random" departSpeed="10.00" route="route_6"/>
    <vehicle id="N_282" type="car" depart="54.60" departLane="random" departSpeed="10.00" route="route_10"/>
    <vehicle id="S_482" type="motorcycle" depart="54.82" departLane="random" departSpeed="10.00" route="route_5"/>
    <vehicle id="E_1163" type="car" depart="55.97" departLane="random" departSpeed="10.00" route="route_8"/>
    <vehicle id="N_293" type="car" depart="56.10" departLane="random" departSpeed="10.00" route="route_10"/>
    <vehicle id="W_657" type="car" depart="56.34" departLane="random" departSpeed="10.00" route="route_1"/>
    <vehicle id="E_1269" type="car" depart="57.13" departLane="random" departSpeed="10.00" route="route_8"/>
    <vehicle id="E_1276" type="car" depart="57.42" departLane="random" departSpeed="10.00" route="route_8"/>
    <vehicle id="W_736" type="car" depart="57.94" departLane="random" departSpeed="10.00" route="route_1"/>
    <vehicle id="W_750" type="truck" depart="58.86" departLane="random" departSpeed="10.00" route="route_2"/>
    <vehicle id="S_508" type="motorcycle" depart="58.88" departLane="random" departSpeed="10.00" route="route_5"/>
    <vehicle id="W_752" type="car" depart="58.94" departLane="random" departSpeed="10.00" route="route_1"/>
    <vehicle id="W_756" type="truck" depart="59.32" departLane="random" departSpeed="10.00" route="route_2"/>
    <vehicle id="W_757" type="truck" depart="59.48" departLane="random" departSpeed="10.00" route="route_2"/>
    <vehicle id="E_1217" type="car" depart="59.53" departLane="random" departSpeed="10.00" route="route_6"/>
    <vehicle id="E_1256" type="car" depart="59.60" departLane="random" departSpeed="10.00" route="route_8"/>
    <vehicle id="W_761" type="truck" depart="59.86" departLane="random" departSpeed="10.00" route="route_2"/>
    <vehicle id="S_541" type="motorcycle" depart="60.79" departLane="random" departSpeed="10.00" route="route_3"/>
    <vehicle id="S_561" type="motorcycle" depart="61.57" departLane="random" departSpeed="10.00" route="route_3"/>
    <vehicle id="W_796" type="car" depart="61.70" departLane="random" departSpeed="10.00" route="route_1"/>
    <vehicle id="E_1331" type="car" depart="62.72" departLane="random" departSpeed="10.00" route="route_6"/>
    <vehicle id="E_1326" type="car" depart="62.80" departLane="random" departSpeed="10.00" route="route_7"/>
    <vehicle id="E_1328" type="car" depart="63.09" departLane="random" departSpeed="10.00" route="route_8"/>
    <vehicle id="W_821" type="car" depart="63.39" departLane="random" departSpeed="10.00" route="route_0"/>
    <vehicle id="E_1380" type="car" depart="64.10" departLane="random" departSpeed="10.00" route="route_6"/>
    <vehicle id="E_1386" type="car" depart="64.24" departLane="random" departSpeed="10.00" route="route_6"/>
    <vehicle id="S_590" type="motorcycle" depart="64.29" departLane="random" departSpeed="10.00" route="route_3"/>
    <vehicle id="W_843" type="car" depart="64.62" departLane="random" departSpeed="10.00" route="route_1"/>
    <vehicle id="E_1388" type="car" depart="64.83" departLane="random" departSpeed="10.00" route="route_8"/>
    <vehicle id="S_604" type="car" depart="64.92" departLane="random" departSpeed="10.00" route="route_5"/>
    <vehicle id="S_614" type="car" depart="65.63" departLane="random" departSpeed="10.00" route="route_5"/>
    <vehicle id="W_859" type="car" depart="65.85" departLane="random" departSpeed="10.00" route="route_1"/>
    <vehicle id="W_862" type="car" depart="66.09" departLane="random" departSpeed="10.00" route="route_1"/>
    <vehicle id="S_622" type="car" depart="66.75" departLane="random" departSpeed="10.00" route="route_5"/>
    <vehicle id="E_1384" type="car" depart="67.30" departLane="random" departSpeed="10.00" route="route_7"/>
    <vehicle id="W_892" type="car" depart="68.53" departLane="random" departSpeed="10.00" route="route_1"/>
    <vehicle id="E_1359" type="car" depart="68.83" departLane="random" departSpeed="10.00" route="route_6"/>
    <vehicle id="S_610" type="car" depart="69.20" departLane="random" departSpeed="10.00" route="route_4"/>
    <vehicle id="W_939" type="car" depart="70.61" departLane="random" departSpeed="10.00" route="route_1"/>
    <vehicle id="W_944" type="car" depart="70.76" departLane="random" departSpeed="10.00" route="route_1"/>
    <vehicle id="W_951" type="car" depart="71.07" departLane="random" departSpeed="10.00" route="route_1"/>
    <vehicle id="E_1418" type="car" depart="71.95" departLane="random" departSpeed="10.00" route="route_7"/>
    <vehicle id="S_667" type="motorcycle" depart="72.61" departLane="random" departSpeed="10.00" route="route_3"/>
    <vehicle id="S_700" type="motorcycle" depart="73.89" departLane="random" departSpeed="10.00" route="route_5"/>
    <vehicle id="E_1447" type="motorcycle" depart="74.20" departLane="random" departSpeed="10.00" route="route_6"/>
    <vehicle id="N_382" type="car" depart="74.45" departLane="random" departSpeed="10.00" route="route_10"/>
    <vehicle id="N_386" type="car" depart="74.76" departLane="random" departSpeed="10.00" route="route_10"/>
    <vehicle id="N_393" type="car" depart="74.92" departLane="random" departSpeed="10.00" route="route_10"/>
    <vehicle id="N_395" type="car" depart="75.07" departLane="random" departSpeed="10.00" route="route_10"/>
    <vehicle id="S_716" type="motorcycle" depart="75.07" departLane="random" departSpeed="10.00" route="route_3"/>
    <vehicle id="S_682" type="motorcycle" depart="75.24" departLane="random" departSpeed="10.00" route="route_3"/>
    <vehicle id="E_1422" type="car" depart="75.44" departLane="random" departSpeed="10.00" route="route_6"/>
    <vehicle id="W_1038" type="car" depart="75.77" departLane="random" departSpeed="10.00" route="route_1"/>
    <vehicle id="W_1050" type="car" depart="76.08" departLane="random" departSpeed="10.00" route="route_1"/>
    <vehicle id="S_681" type="car" depart="76.34" departLane="random" departSpeed="10.00" route="route_5"/>
    <vehicle id="W_1064" type="car" depart="76.46" departLane="random" departSpeed="10.00" route="route_0"/>
    <vehicle id="S_737" type="motorcycle" depart="76.50" departLane="random" departSpeed="10.00" route="route_5"/>
    <vehicle id="W_1079" type="car" depart="76.78" departLane="random" departSpeed="10.00" route="route_1"/>
    <vehicle id="W_1086" type="car" depart="76.93" departLane="random" departSpeed="10.00" route="route_1"/>
    <vehicle id="W_1087" type="car" depart="77.01" departLane="random" departSpeed="10.00" route="route_2"/>
    <vehicle id="S_750" type="motorcycle" depart="77.95" departLane="random" departSpeed="10.00" route="route_5"/>
    <vehicle id="S_757" type="motorcycle" depart="78.19" departLane="random" departSpeed="10.00" route="route_4"/>
    <vehicle id="W_1123" type="car" depart="78.39" departLane="random" departSpeed="10.00" route="route_1"/>
    <vehicle id="W_1139" type="truck" depart="79.00" departLane="random" departSpeed="10.00" route="route_2"/>
    <vehicle id="W_1149" type="truck" depart="79.31" departLane="random" departSpeed="10.00" route="route_2"/>
    <vehicle id="W_1166" type="truck" depart="79.77" departLane="random" departSpeed="10.00" route="route_2"/>
    <vehicle id="E_1502" type="car" depart="79.88" departLane="random" departSpeed="10.00" route="route_7"/>
    <vehicle id="W_1176" type="truck" depart="80.08" departLane="random" departSpeed="10.00" route="route_2"/>
    <vehicle id="W_1203" type="car" depart="80.92" departLane="random" departSpeed="10.00" route="route_1"/>
    <vehicle id="W_1206" type="car" depart="81.08" departLane="random" departSpeed="10.00" route="route_1"/>
    <vehicle id="N_426" type="car" depart="82.25" departLane="random" departSpeed="10.00" route="route_9"/>
    <vehicle id="S_831" type="motorcycle" depart="82.93" departLane="random" departSpeed="10.00" route="route_3"/>
    <vehicle id="S_721" type="motorcycle" depart="83.01" departLane="random" departSpeed="10.00" route="route_5"/>
    <vehicle id="S_841" type="motorcycle" depart="83.15" departLane="random" departSpeed="10.00" route="route_3"/>
    <vehicle id="S_853" type="motorcycle" depart="83.66" departLane="random" departSpeed="10.00" route="route_3"/>
    <vehicle id="S_844" type="motorcycle" depart="83.81" departLane="random" departSpeed="10.00" route="route_3"/>
    <vehicle id="S_859" type="motorcycle" depart="84.03" departLane="random" departSpeed="10.00" route="route_3"/>
    <vehicle id="S_903" type="motorcycle" depart="86.65" departLane="random" departSpeed="10.00" route="route_5"/>
    <vehicle id="S_944" type="motorcycle" depart="89.27" departLane="random" departSpeed="10.00" route="route_3"/>
    <vehicle id="S_972" type="motorcycle" depart="90.37" departLane="random" departSpeed="10.00" route="route_3"/>
    <vehicle id="S_968" type="motorcycle" depart="90.60" departLane="random" departSpeed="10.00" route="route_4"/>
    <vehicle id="S_959" type="motorcycle" depart="91.04" departLane="random" departSpeed="10.00" route="route_3"/>
    <vehicle id="W_1352" type="car" depart="91.30" departLane="random" departSpeed="10.00" route="route_1"/>
    <vehicle id="S_990" type="motorcycle" depart="91.35" departLane="random" departSpeed="10.00" route="route_3"/>
    <vehicle id="W_1364" type="motorcycle" depart="92.69" departLane="random" departSpeed="10.00" route="route_2"/>
    <vehicle id="S_1025" type="motorcycle" depart="93.05" departLane="random" departSpeed="10.00" route="route_5"/>
    <vehicle id="S_1017" type="motorcycle" depart="93.12" departLane="random" departSpeed="10.00" route="route_5"/>
    <vehicle id="W_1373" type="motorcycle" depart="93.38" departLane="random" departSpeed="10.00" route="route_2"/>
    <vehicle id="W_1375" type="motorcycle" depart="93.92" departLane="random" departSpeed="10.00" route="route_2"/>
    <vehicle id="S_1036" type="motorcycle" depart="93.93" departLane="random" departSpeed="10.00" route="route_5"/>
    <vehicle id="N_597" type="car" depart="95.00" departLane="random" departSpeed="10.00" route="route_9"/>
    <vehicle id="N_616" type="car" depart="95.84" departLane="random" departSpeed="10.00" route="route_10"/>
    <vehicle id="N_623" type="car" depart="96.22" departLane="random" departSpeed="10.00" route="route_10"/>
    <vehicle id="W_1281" type="car" depart="96.99" departLane="random" departSpeed="10.00" route="route_2"/>
    <vehicle id="E_1701" type="car" depart="98.16" departLane="random" departSpeed="10.00" route="route_7"/>
    <vehicle id="S_1000" type="car" depart="99.40" departLane="random" departSpeed="10.00" route="route_5"/>
    <vehicle id="E_1726" type="motorcycle" depart="100.19" departLane="random" departSpeed="10.00" route="route_7"/>
    <vehicle id="S_1150" type="motorcycle" depart="101.40" departLane="random" departSpeed="10.00" route="route_4"/>
    <vehicle id="W_1461" type="car" depart="101.45" departLane="random" departSpeed="10.00" route="route_2"/>
    <vehicle id="S_1117" type="motorcycle" depart="102.06" departLane="random" departSpeed="10.00" route="route_3"/>
    <vehicle id="W_1472" type="car" depart="102.07" departLane="random" departSpeed="10.00" route="route_1"/>
    <vehicle id="N_838" type="car" depart="103.30" departLane="random" departSpeed="10.00" route="route_10"/>
    <vehicle id="N_870" type="bus" depart="105.00" departLane="random" departSpeed="10.00" route="route_9"/>
    <vehicle id="E_1813" type="motorcycle" depart="106.87" departLane="random" departSpeed="10.00" route="route_7"/>
    <vehicle id="N_1013" type="car" depart="107.83" departLane="random" departSpeed="10.00" route="route_10"/>
    <vehicle id="N_1031" type="car" depart="108.20" departLane="random" departSpeed="10.00" route="route_10"/>
    <vehicle id="N_1060" type="car" depart="108.58" departLane="random" departSpeed="10.00" route="route_10"/>
    <vehicle id="S_1219" type="truck" depart="112.17" departLane="random" departSpeed="10.00" route="route_5"/>
    <vehicle id="N_1209" type="car" depart="114.15" departLane="random" departSpeed="10.00" route="route_10"/>
    <vehicle id="N_1218" type="car" depart="114.24" departLane="random" departSpeed="10.00" route="route_9"/>
    <vehicle id="N_1131" type="bus" depart="116.13" departLane="random" departSpeed="10.00" route="route_9"/>
    <vehicle id="S_1248" type="truck" depart="116.83" departLane="random" departSpeed="10.00" route="route_5"/>
    <vehicle id="N_1396" type="car" depart="118.86" departLane="random" departSpeed="10.00" route="route_9"/>
    <vehicle id="N_1399" type="car" depart="119.04" departLane="random" departSpeed="10.00" route="route_10"/>
    <vehicle id="N_1443" type="motorcycle" depart="120.36" departLane="random" departSpeed="10.00" route="route_9"/>
    <vehicle id="E_1975" type="car" depart="120.87" departLane="random" departSpeed="10.00" route="route_7"/>
    <vehicle id="N_1430" type="car" depart="121.14" departLane="random" departSpeed="10.00" route="route_10"/>
    <vehicle id="N_1539" type="motorcycle" depart="123.31" departLane="random" departSpeed="10.00" route="route_9"/>
    <vehicle id="N_1565" type="car" depart="124.25" departLane="random" departSpeed="10.00" route="route_10"/>
    <vehicle id="N_1613" type="motorcycle" depart="126.70" departLane="random" departSpeed="10.00" route="route_9"/>
    <vehicle id="N_1635" type="car" depart="127.83" departLane="random" departSpeed="10.00" route="route_9"/>
    <vehicle id="N_1638" type="motorcycle" depart="127.93" departLane="random" departSpeed="10.00" route="route_9"/>
    <vehicle id="N_1639" type="car" depart="127.93" departLane="random" departSpeed="10.00" route="route_9"/>
    <vehicle id="N_1644" type="car" depart="128.11" departLane="random" departSpeed="10.00" route="route_9"/>
    <vehicle id="N_1645" type="car" depart="128.20" departLane="random" departSpeed="10.00" route="route_9"/>
    <vehicle id="N_1665" type="car" depart="129.15" departLane="random" departSpeed="10.00" route="route_9"/>
    <vehicle id="N_1710" type="bus" depart="130.84" departLane="random" departSpeed="10.00" route="route_9"/>
    <vehicle id="N_1739" type="bus" depart="131.97" departLane="random" departSpeed="10.00" route="route_9"/>
    <vehicle id="W_1831" type="car" depart="132.37" departLane="random" departSpeed="10.00" route="route_2"/>
    <vehicle id="N_1640" type="car" depart="132.72" departLane="random" departSpeed="10.00" route="route_10"/>
    <vehicle id="N_1821" type="motorcycle" depart="134.07" departLane="random" departSpeed="10.00" route="route_9"/>
    <vehicle id="N_1824" type="car" depart="134.07" departLane="random" departSpeed="10.00" route="route_9"/>
    <vehicle id="N_1848" type="car" depart="134.56" departLane="random" departSpeed="10.00" route="route_9"/>
    <vehicle id="N_1849" type="car" depart="134.56" departLane="random" departSpeed="10.00" route="route_9"/>
    <vehicle id="N_1920" type="motorcycle" depart="136.40" departLane="random" departSpeed="10.00" route="route_9"/>
    <vehicle id="N_1918" type="motorcycle" depart="136.55" departLane="random" departSpeed="10.00" route="route_9"/>
    <vehicle id="N_1954" type="car" depart="137.01" departLane="random" departSpeed="10.00" route="route_9"/>
    <vehicle id="N_1925" type="motorcycle" depart="137.86" departLane="random" departSpeed="10.00" route="route_9"/>
    <vehicle id="W_1910" type="motorcycle" depart="137.98" departLane="random" departSpeed="10.00" route="route_2"/>
    <vehicle id="N_2045" type="car" depart="138.55" departLane="random" departSpeed="10.00" route="route_10"/>
    <vehicle id="N_2057" type="car" depart="138.63" departLane="random" departSpeed="10.00" route="route_9"/>
    <vehicle id="N_2060" type="car" depart="138.71" departLane="random" departSpeed="10.00" route="route_10"/>
    <vehicle id="N_2051" type="motorcycle" depart="138.78" departLane="random" departSpeed="10.00" route="route_9"/>
    <vehicle id="N_2073" type="car" depart="138.93" departLane="random" departSpeed="10.00" route="route_10"/>
    <vehicle id="N_2087" type="motorcycle" depart="139.16" departLane="random" departSpeed="10.00" route="route_9"/>
    <vehicle id="N_2093" type="motorcycle" depart="139.24" departLane="random" departSpeed="10.00" route="route_9"/>
    <vehicle id="N_2156" type="car" depart="140.47" departLane="random" departSpeed="10.00" route="route_9"/>
    <vehicle id="N_2147" type="car" depart="140.55" departLane="random" departSpeed="10.00" route="route_9"/>
    <vehicle id="N_2210" type="car" depart="141.24" departLane="random" departSpeed="10.00" route="route_9"/>
    <vehicle id="N_2224" type="car" depart="141.32" departLane="random" departSpeed="10.00" route="route_10"/>
    <vehicle id="W_1946" type="motorcycle" depart="141.35" departLane="random" departSpeed="10.00" route="route_2"/>
    <vehicle id="W_1962" type="motorcycle" depart="141.97" departLane="random" departSpeed="10.00" route="route_2"/>
    <vehicle id="N_2309" type="car" depart="143.01" departLane="random" departSpeed="10.00" route="route_9"/>
    <vehicle id="N_2302" type="car" depart="143.09" departLane="random" departSpeed="10.00" route="route_10"/>
    <vehicle id="N_2310" type="car" depart="143.09" departLane="random" departSpeed="10.00" route="route_9"/>
    <vehicle id="N_2318" type="car" depart="143.40" departLane="random" departSpeed="10.00" route="route_9"/>
    <vehicle id="E_2209" type="car" depart="143.44" departLane="random" departSpeed="10.00" route="route_7"/>
    <vehicle id="E_2235" type="car" depart="143.59" departLane="random" departSpeed="10.00" route="route_7"/>
    <vehicle id="N_2330" type="car" depart="143.63" departLane="random" departSpeed="10.00" route="route_10"/>
    <vehicle id="N_2230" type="car" depart="144.47" departLane="random" departSpeed="10.00" route="route_9"/>
    <vehicle id="N_2108" type="car" depart="146.25" departLane="random" departSpeed="10.00" route="route_10"/>
    <vehicle id="N_2427" type="car" depart="146.40" departLane="random" departSpeed="10.00" route="route_10"/>
    <vehicle id="W_1883" type="car" depart="146.81" departLane="random" departSpeed="10.00" route="route_2"/>
    <vehicle id="N_2449" type="car" depart="147.24" departLane="random" departSpeed="10.00" route="route_9"/>
    <vehicle id="E_2293" type="motorcycle" depart="147.81" departLane="random" departSpeed="10.00" route="route_7"/>
    <vehicle id="E_2316" type="motorcycle" depart="148.39" departLane="random" departSpeed="10.00" route="route_7"/>
    <vehicle id="N_2502" type="car" depart="149.09" departLane="random" departSpeed="10.00" route="route_10"/>
    <vehicle id="N_2505" type="car" depart="149.09" departLane="random" departSpeed="10.00" route="route_9"/>